*HEADING
cubit(rs/acsokol/Documents/GitHub/dual/code/quad/bin/sphere.inp): 11/01/2021: 16
version: 15.8
**
********************************** P A R T S **********************************
*PART, NAME=Part-Default
**
********************************** N O D E S **********************************
*NODE, NSET=ALLNODES
       1,   -3.061617e-16,   -3.749399e-32,   -5.000000e+00
       2,   -3.061617e-16,   -3.749399e-32,    5.000000e+00
       3,   -7.821723e-01,   -9.578848e-17,   -4.938442e+00
       4,   -1.545085e+00,   -1.892183e-16,   -4.755283e+00
       5,   -2.269953e+00,   -2.779890e-16,   -4.455033e+00
       6,   -2.938926e+00,   -3.599147e-16,   -4.045085e+00
       7,   -3.535534e+00,   -4.329780e-16,   -3.535534e+00
       8,   -4.045085e+00,   -4.953800e-16,   -2.938926e+00
       9,   -4.455033e+00,   -5.455841e-16,   -2.269952e+00
      10,   -4.755283e+00,   -5.823542e-16,   -1.545085e+00
      11,   -4.938442e+00,   -6.047847e-16,   -7.821723e-01
      12,   -5.000000e+00,   -6.123234e-16,    5.417975e-14
      13,   -4.938442e+00,   -6.047847e-16,    7.821723e-01
      14,   -4.755283e+00,   -5.823542e-16,    1.545085e+00
      15,   -4.455033e+00,   -5.455841e-16,    2.269952e+00
      16,   -4.045085e+00,   -4.953800e-16,    2.938926e+00
      17,   -3.535534e+00,   -4.329780e-16,    3.535534e+00
      18,   -2.938926e+00,   -3.599147e-16,    4.045085e+00
      19,   -2.269953e+00,   -2.779890e-16,    4.455033e+00
      20,   -1.545085e+00,   -1.892183e-16,    4.755283e+00
** ... 613 like lines cut
**
********************************** E L E M E N T S ****************************
*ELEMENT, TYPE=STRI3, ELSET=EB1
       1,      22,      23,       1
       2,      62,      24,      21
       3,      22,       1,      26
       4,      27,       4,       5
       5,      27,       5,      28
       6,       6,      29,       7
       7,      28,       6,      30
       8,      30,       7,      31
       9,       9,      32,      10
      10,     100,     101,      27
      11,      11,      51,      34
      12,     121,      91,     124
      13,      22,      26,     104
      14,      37,      14,      38
      15,      17,      40,      18
      16,      19,      59,      42
      17,       3,      44,       4
      18,      27,      45,       4
      19,       5,       4,      46
      20,       6,       5,      47
** ... 1242 like lines cut
**
********************************** P R O P E R T I E S ************************
*SHELL SECTION, ELSET=EB1, SECTION INTEGRATION=SIMPSON, MATERIAL=Default-Steel
1.000000e+00
**
*END PART
**
**
**
********************************** E N D   P A R T S **********************************
**
**
********************************** A S S E M B L Y ************************************
**
*ASSEMBLY, NAME=ASSEMBLY1
**
*INSTANCE, NAME=Part-Default_1, PART=Part-Default
*END INSTANCE
**
*END ASSEMBLY
**
**
**
*MATERIAL, NAME = Default-Steel
*ELASTIC, TYPE=ISOTROPIC
2.068000e+05, 2.900000e-01
*DENSITY
7.000000e-06
*CONDUCTIVITY,TYPE=ISO
4.500000e-02
*SPECIFIC HEAT
5.000000e+02
**
**
************************************** H I S T O R Y *************************************
**
*PREPRINT
**
**************************************** S T E P 1 ***************************************
*STEP,INC=100,NAME=Default Set
**
*STATIC
1, 1, 1e-05, 1
**
**
**
**
*END STEP
